REMARK  12 active torsions:
REMARK  status: ('A' for Active; 'I' for Inactive)
REMARK    1  A    between atoms: C_2  and  C_3 
REMARK    2  A    between atoms: C_3  and  C_4 
REMARK    3  A    between atoms: C_4  and  C_5 
REMARK    4  A    between atoms: C_5  and  C_6 
REMARK    5  A    between atoms: C_6  and  C_7 
REMARK    6  A    between atoms: C_7  and  C_8 
REMARK    7  A    between atoms: C_8  and  C_9 
REMARK    8  A    between atoms: C_9  and  C_10 
REMARK    9  A    between atoms: C_10  and  C_11 
REMARK   10  A    between atoms: C_11  and  C_12 
REMARK   11  A    between atoms: C_12  and  C_13 
REMARK   12  A    between atoms: C_13  and  O_14 
ROOT
HETATM    1  C   UNL     1       8.545  -3.255  -2.819  1.00  0.00     0.000 C 
ENDROOT
BRANCH   1   2
HETATM    2  C   UNL     1       7.016  -3.235  -2.803  1.00  0.00     0.000 C 
BRANCH   2   3
HETATM    3  C   UNL     1       6.482  -2.136  -1.883  1.00  0.00     0.000 C 
BRANCH   3   4
HETATM    4  C   UNL     1       4.953  -2.119  -1.868  1.00  0.00     0.000 C 
BRANCH   4   5
HETATM    5  C   UNL     1       4.417  -1.020  -0.948  1.00  0.00     0.000 C 
BRANCH   5   6
HETATM    6  C   UNL     1       2.888  -1.004  -0.935  1.00  0.00    -0.000 C 
BRANCH   6   7
HETATM    7  C   UNL     1       2.350   0.092  -0.016  1.00  0.00    -0.005 C 
HETATM    8  C   UNL     1       0.830   0.111  -0.001  1.00  0.00     0.005 C 
ENDBRANCH   6   7
ENDBRANCH   5   6
ENDBRANCH   4   5
ENDBRANCH   3   4
ENDBRANCH   2   3
ENDBRANCH   1   2
BRANCH   1   9
HETATM    9  C   UNL     1       9.076  -4.355  -3.740  1.00  0.00     0.000 C 
BRANCH   9  10
HETATM   10  C   UNL     1      10.605  -4.376  -3.759  1.00  0.00     0.000 C 
BRANCH  10  11
HETATM   11  C   UNL     1      11.134  -5.476  -4.681  1.00  0.00     0.002 C 
BRANCH  11  12
HETATM   12  C   UNL     1      12.661  -5.496  -4.703  1.00  0.00     0.026 C 
BRANCH  12  13
HETATM   13  C   UNL     1      13.195  -6.589  -5.620  1.00  0.00     0.164 C 
BRANCH  13  14
HETATM   14  O   UNL     1      14.616  -6.584  -5.599  1.00  0.00    -0.401 OA
HETATM   15  H   UNL     1      14.910  -5.711  -5.910  1.00  0.00     0.209 HD
ENDBRANCH  13  14
ENDBRANCH  12  13
ENDBRANCH  11  12
ENDBRANCH  10  11
ENDBRANCH   9  10
ENDBRANCH   1   9
TORSDOF 12
